LTspice 26.0.1 for Windows
Circuit: C:\Users\Sam\Desktop\PMODVGA\AdapterPCB\adapter\ltspice\ResistorDAC.net
Start Time: Fri Feb  6 02:02:16 2026
solver = Normal
Maximum thread count: 4
tnom = 27
temp = 27
method = trap
Compress1stOrder = true
Compress2ndOrder = true
Direct Newton iteration succeeded in finding operating point.
Total elapsed time: 0.068 seconds.

Files loaded:
C:\Users\Sam\Desktop\PMODVGA\AdapterPCB\adapter\ltspice\ResistorDAC.net

